units(length='cm', time='s', quantity='mol', act_energy='cal/mol')

ideal_gas(name='gas',
          elements="C H N O Ar He",
          species="""HE              AR              N2
                     H               H2              O
                     O2              OH              H2O
                     HO2             H2O2            CO
                     CO2             HCO             CH2O
                     formylperoxy    formylooh       C
                     CH              CH2(S)          CH2
                     CH3             CH4             CH3OO
                     CH3OOH          CH2OH           CH3O
                     CH3OH           OCH2OOH         HOCH2OO
                     HOCH2OOH        HOCH2O          C2H2
                     C2H3            C2H4            C2H5
                     C2H6            ketene          HCCO
                     ethynol         acetaldehyde    acetyl
                     vinoxy          acetylperoxy    acetyloxy
                     ethoxy          CH3CH2OO        CH3CH2OOH
                     CH2CH2OOH       ethanol         CH2CH2OH
                     CH3CHOH         oxirane         oxiranyl
                     ethenol         C3H6            npropyl
                     ipropyl         C3H8            allyl
                     propen1yl       propen2yl       acetone
                     acrolein        CH2CHCO         CH3CHCO
                     allyloxy        allyl-alcohol   propanal
                     propionyl       npropyloxy      ipropyloxy
                     npropyloo       npropylooh      ipropyloo
                     ipropylooh      propen1ol       propen2ol
                     CH3CO3H         O2C2H4OH        propoxide
                     QOOH_1          QOOH_2          QOOH_3
                     well_1          well_2          well_3
                     well_5          prod_1          prod_2
                     prod_3          prod_4          prod_5
                     prod_6          prod_7          frag_1
                     frag_3          frag_4          frag_5
                     propen1oxy      propen2oxy      CH3OCH3
                     CH3OCH2         OCHO            HOCHO
                     methyl_formate  CH3OCH2O        CH3OCH2OH
                     OCH2OCHO        HOCH2OCO        CH3OCH2O2
                     CH2OCH2O2H      CH3OCH2O2H      HO2CH2OCHO
                     O2CH2OCH2O2H    CH2OCHO         CH3OCO
                     glyoxal         vinoxylmethyl   formylethyl""",
          reactions='all',
          initial_state=state(temperature=300.0, pressure=OneAtm,
            mole_fractions='CH3OCH3:0.0000,C3H8:0.0403,O2:0.1008,N2:0.8589'))

#-------------------------------------------------------------------------------
# Species data
#-------------------------------------------------------------------------------

species(name=u'HE',
        atoms='He:1',
        thermo=(NASA([200.00, 1000.00],
                     [ 2.50000000E+00,  0.00000000E+00,  0.00000000E+00,
                       0.00000000E+00,  0.00000000E+00, -7.45375000E+02,
                       9.28723974E-01]),
                NASA([1000.00, 6000.00],
                     [ 2.50000000E+00,  0.00000000E+00,  0.00000000E+00,
                       0.00000000E+00,  0.00000000E+00, -7.45375000E+02,
                       9.28723974E-01])),
        note=u'REFELEMENT')

species(name=u'AR',
        atoms='Ar:1',
        thermo=(NASA([200.00, 1000.00],
                     [ 2.50000000E+00,  0.00000000E+00,  0.00000000E+00,
                       0.00000000E+00,  0.00000000E+00, -7.45375000E+02,
                       4.37967490E+00]),
                NASA([1000.00, 6000.00],
                     [ 2.50000000E+00,  0.00000000E+00,  0.00000000E+00,
                       0.00000000E+00,  0.00000000E+00, -7.45375000E+02,
                       4.37967490E+00])),
        note=u'L6/88')

species(name=u'N2',
        atoms='N:2',
        thermo=(NASA([200.00, 1000.00],
                     [ 3.53100528E+00, -1.23660988E-04, -5.02999433E-07,
                       2.43530612E-09, -1.40881235E-12, -1.04697628E+03,
                       2.96747038E+00]),
                NASA([1000.00, 6000.00],
                     [ 2.95257637E+00,  1.39690040E-03, -4.92631603E-07,
                       7.86010195E-11, -4.60755204E-15, -9.23948688E+02,
                       5.87188762E+00])),
        note=u'G8/02')

species(name=u'H',
        atoms='H:1',
        thermo=(NASA([298.00, 1000.00],
                     [ 2.50052819E+00, -3.11697989E-06,  6.47853854E-09,
                      -5.71962326E-12,  1.82988158E-15,  2.55011937E+04,
                      -4.62100153E-01]),
                NASA([1000.00, 6000.00],
                     [ 2.50000005E+00, -6.91290402E-11,  3.17013507E-14,
                      -5.99512384E-18,  4.00484424E-22,  2.55012590E+04,
                      -4.59778617E-01])))

species(name=u'H2',
        atoms='H:2',
        thermo=(NASA([298.00, 1000.00],
                     [ 3.48870327E+00,  1.02702531E-04, -3.02211299E-07,
                       2.89514709E-10, -4.75166356E-15, -1.04194147E+03,
                      -4.23034959E+00]),
                NASA([1000.00, 3000.00],
                     [ 3.62611241E+00, -7.07448862E-04,  9.49227986E-07,
                      -3.32722051E-10,  3.87880605E-14, -1.04457010E+03,
                      -4.79857925E+00])))

species(name=u'O',
        atoms='O:1',
        thermo=(NASA([298.00, 1000.00],
                     [ 2.50052819E+00, -3.11697989E-06,  6.47853854E-09,
                      -5.71962326E-12,  1.82988158E-15,  2.93011937E+04,
                       4.09007152E+00]),
                NASA([1000.00, 6000.00],
                     [ 2.50000005E+00, -6.91290402E-11,  3.17013507E-14,
                      -5.99512384E-18,  4.00484424E-22,  2.93012590E+04,
                       4.09239305E+00])))

species(name=u'O2',
        atoms='O:2',
        thermo=(NASA([298.00, 1000.00],
                     [ 3.73919094E+00, -2.57259356E-03,  8.31553249E-06,
                      -7.79499779E-09,  2.46236871E-12, -1.05916806E+03,
                       3.80588137E+00]),
                NASA([1000.00, 3000.00],
                     [ 2.95870332E+00,  2.12372581E-03, -1.23235198E-06,
                       3.34113450E-10, -3.46898036E-14, -9.77078078E+02,
                       7.18948256E+00])))

species(name=u'OH',
        atoms='H:1 O:1',
        thermo=(NASA([298.00, 1000.00],
                     [ 3.48552785E+00,  1.90678864E-04, -7.61226601E-07,
                       1.06744613E-09, -3.38195682E-13,  3.44685909E+03,
                       2.22843987E+00]),
                NASA([1000.00, 3000.00],
                     [ 3.23447499E+00,  1.51896174E-04,  4.34111743E-07,
                      -2.02953413E-10,  2.67010622E-14,  3.56347771E+03,
                       3.73600742E+00])))

species(name=u'H2O',
        atoms='H:2 O:1',
        thermo=(NASA([298.00, 1000.00],
                     [ 4.18218030E+00, -2.07725471E-03,  6.84832209E-06,
                      -6.02731059E-09,  1.98408310E-12, -3.04340222E+04,
                      -7.74536721E-01]),
                NASA([1000.00, 3000.00],
                     [ 3.14529933E+00,  1.95824290E-03, -6.98290283E-08,
                      -1.50137039E-10,  2.64440298E-14, -3.01866053E+04,
                       4.34191314E+00])))

species(name=u'HO2',
        atoms='H:1 O:2',
        thermo=(NASA([298.00, 1000.00],
                     [ 3.60723090E+00,  4.61881768E-04,  6.97418735E-06,
                      -8.41984228E-09,  3.04543691E-12,  2.35057523E+02,
                       6.58114050E+00]),
                NASA([1000.00, 3000.00],
                     [ 3.28110235E+00,  3.77506215E-03, -1.75648628E-06,
                       4.07034574E-10, -3.78181331E-14,  2.24752226E+02,
                       7.71463465E+00])))

species(name=u'H2O2',
        atoms='H:2 O:2',
        thermo=(NASA([298.00, 1000.00],
                     [ 3.49023750E+00,  4.56236214E-03,  3.03586997E-06,
                      -6.32874728E-09,  2.62194355E-12, -1.74279031E+04,
                       6.77235305E+00]),
                NASA([1000.00, 3000.00],
                     [ 3.69370684E+00,  5.68657782E-03, -2.49129909E-06,
                       5.39632959E-10, -4.69526598E-14, -1.75344065E+04,
                       5.38396941E+00])))

species(name=u'CO',
        atoms='C:1 O:1',
        thermo=(NASA([298.00, 1000.00],
                     [ 3.80247114E+00, -2.25185963E-03,  5.20575536E-06,
                      -3.65732275E-09,  8.67311679E-13, -1.43329842E+04,
                       2.55332027E+00]),
                NASA([1000.00, 3000.00],
                     [ 2.67221589E+00,  2.14795865E-03, -1.09600046E-06,
                       2.67704940E-10, -2.55232313E-14, -1.41047428E+04,
                       8.02677269E+00])))

species(name=u'CO2',
        atoms='C:1 O:2',
        thermo=(NASA([298.00, 1000.00],
                     [ 2.11231308E+00,  1.07974715E-02, -1.19114446E-05,
                       7.62857192E-09, -2.12847092E-12, -4.84358078E+04,
                       1.09027469E+01]),
                NASA([1000.00, 3000.00],
                     [ 3.64040468E+00,  4.93199615E-03, -2.70677442E-06,
                       7.03503909E-10, -7.06893347E-14, -4.87796744E+04,
                       3.40411502E+00])))

species(name=u'HCO',
        atoms='H:1 C:1 O:1',
        thermo=(NASA([298.00, 1000.00],
                     [ 3.96826149E+00, -1.25427815E-03,  8.35078315E-06,
                      -7.55503835E-09,  2.20318729E-12,  3.93458151E+03,
                       4.41683585E+00]),
                NASA([1000.00, 3000.00],
                     [ 2.51159756E+00,  5.37239460E-03, -2.80388609E-06,
                       7.01207106E-10, -6.83977496E-14,  4.18638779E+03,
                       1.12455901E+01])))

species(name=u'CH2O',
        atoms='H:2 C:1 O:1',
        thermo=(NASA([298.00, 1000.00],
                     [ 4.02550517E+00, -4.06770880E-03,  2.17177398E-05,
                      -2.08782820E-08,  6.59719571E-12, -1.43510901E+04,
                       3.76247699E+00]),
                NASA([1000.00, 3000.00],
                     [ 1.21253087E+00,  1.03100703E-02, -5.32426860E-06,
                       1.32521523E-09, -1.29097877E-13, -1.39186182E+04,
                       1.66174479E+01])))

species(name=u'formylperoxy',
        atoms='H:1 C:1 O:3',
        thermo=(NASA([298.00, 1000.00],
                     [ 1.13889150E+00,  2.86632119E-02, -3.43945080E-05,
                       2.15795539E-08, -5.64981660E-12, -1.40352338E+04,
                       1.96624013E+01]),
                NASA([1000.00, 3000.00],
                     [ 6.51772857E+00,  8.76369884E-03, -5.23150570E-06,
                       1.43761318E-09, -1.50202235E-13, -1.52497529E+04,
                      -6.83620038E+00])))

species(name=u'formylooh',
        atoms='H:2 C:1 O:3',
        thermo=(NASA([298.00, 1000.00],
                     [ 1.46729769E-01,  4.60010670E-02, -7.47045497E-05,
                       5.93138163E-08, -1.79584990E-11, -3.63312740E+04,
                       2.21605939E+01]),
                NASA([1000.00, 3000.00],
                     [ 8.15498700E+00,  7.12464341E-03, -3.07276462E-06,
                       6.45248157E-10, -5.35496767E-14, -3.76924290E+04,
                      -1.50180043E+01])))

species(name=u'C',
        atoms='C:1',
        thermo=(NASA([298.00, 1000.00],
                     [ 2.50052819E+00, -3.11697989E-06,  6.47853854E-09,
                      -5.71962326E-12,  1.82988158E-15,  8.55489015E+04,
                       3.65902567E+00]),
                NASA([1000.00, 6000.00],
                     [ 2.50000005E+00, -6.91290402E-11,  3.17013507E-14,
                      -5.99512384E-18,  4.00484424E-22,  8.55489668E+04,
                       3.66134721E+00])))

species(name=u'CH',
        atoms='H:1 C:1',
        thermo=(NASA([298.00, 1000.00],
                     [ 3.59786591E+00, -5.44427017E-04,  6.03986457E-07,
                       5.80967707E-10, -4.34005808E-13,  7.06409577E+04,
                       1.62018856E+00]),
                NASA([1000.00, 3000.00],
                     [ 2.74348624E+00,  1.52989360E-03, -5.52389459E-07,
                       8.80014113E-11, -4.60454258E-15,  7.08809970E+04,
                       6.08287339E+00])))

species(name=u'CH2(S)',
        atoms='H:2 C:1',
        thermo=(NASA([298.00, 1000.00],
                     [ 4.09382097E+00, -1.57355496E-03,  6.14481761E-06,
                      -4.54290901E-09,  1.16592128E-12,  5.04222053E+04,
                      -3.46255517E-01]),
                NASA([1000.00, 3000.00],
                     [ 2.28071747E+00,  4.60602412E-03, -1.97447412E-06,
                       4.09217875E-10, -3.33894485E-14,  5.08537803E+04,
                       8.70740526E+00])))

species(name=u'CH2',
        atoms='H:2 C:1',
        thermo=(NASA([298.00, 1000.00],
                     [ 3.40215504E+00,  3.46667360E-03, -3.77573716E-06,
                       3.12335389E-09, -9.43817916E-13,  4.61091515E+04,
                       3.19557878E+00]),
                NASA([1000.00, 3000.00],
                     [ 3.03963103E+00,  3.06098054E-03, -9.34182390E-07,
                       1.07128289E-10, -9.30010209E-16,  4.62928160E+04,
                       5.45440820E+00])))

species(name=u'CH3',
        atoms='H:3 C:1',
        thermo=(NASA([298.00, 1000.00],
                     [ 3.52930959E+00,  3.93813981E-03,  3.59568786E-07,
                      -1.19085850E-09,  4.30776377E-13,  1.64865209E+04,
                       2.10649376E+00]),
                NASA([1000.00, 3000.00],
                     [ 2.45689312E+00,  6.85662424E-03, -2.73009660E-06,
                       5.22525136E-10, -3.90098356E-14,  1.67951949E+04,
                       7.68715124E+00])))

species(name=u'CH4',
        atoms='H:4 C:1',
        thermo=(NASA([298.00, 1000.00],
                     [ 4.16716351E+00, -6.31932813E-03,  2.98516596E-05,
                      -2.80272841E-08,  8.87170742E-12, -1.00626350E+04,
                      -5.80421443E-01]),
                NASA([1000.00, 3000.00],
                     [-2.12057774E-01,  1.39686455E-02, -6.59704471E-06,
                       1.52400370E-09, -1.39628424E-13, -9.26338717E+03,
                       2.00089507E+01])))

species(name=u'CH3OO',
        atoms='H:3 C:1 O:2',
        thermo=(NASA([298.00, 1000.00],
                     [ 2.98319406E+00,  8.41462643E-03,  1.08731853E-05,
                      -1.71342331E-08,  6.44935730E-12,  3.15932734E+02,
                       1.26008790E+01]),
                NASA([1000.00, 3000.00],
                     [ 2.64738112E+00,  1.48477436E-02, -7.61804675E-06,
                       1.89383796E-09, -1.84785879E-13,  1.68741990E+02,
                       1.30489369E+01])))

species(name=u'CH3OOH',
        atoms='H:4 C:1 O:2',
        thermo=(NASA([298.00, 1000.00],
                     [ 2.82184432E+00,  1.64737593E-02, -3.06985502E-06,
                      -5.66411133E-09,  2.92984321E-12, -1.70148153E+04,
                       1.30015178E+01]),
                NASA([1000.00, 3000.00],
                     [ 3.87376650E+00,  1.56959828E-02, -7.77768567E-06,
                       1.87848924E-09, -1.79072394E-13, -1.73724393E+04,
                       7.12981738E+00])))

species(name=u'CH2OH',
        atoms='H:3 C:1 O:1',
        thermo=(NASA([298.00, 1000.00],
                     [ 2.82495458E+00,  1.12705233E-02, -4.57074212E-06,
                      -1.60781616E-09,  1.44390945E-12, -3.10796166E+03,
                       1.00763394E+01]),
                NASA([1000.00, 3000.00],
                     [ 4.00727361E+00,  8.29366647E-03, -3.67893214E-06,
                       8.10551112E-10, -7.17299662E-14, -3.40058619E+03,
                       4.01290816E+00])))

species(name=u'CH3O',
        atoms='H:3 C:1 O:1',
        thermo=(NASA([298.00, 1000.00],
                     [ 2.05790201E+00,  9.53454644E-03,  2.56323913E-06,
                      -7.59370108E-09,  3.02439392E-12,  1.41480580E+03,
                       1.27986825E+01]),
                NASA([1000.00, 3000.00],
                     [ 1.84600348E+00,  1.27916998E-02, -6.49261849E-06,
                       1.59518222E-09, -1.53886597E-13,  1.35518213E+03,
                       1.32648102E+01])))

species(name=u'CH3OH',
        atoms='H:4 C:1 O:1',
        thermo=(NASA([298.00, 1000.00],
                     [ 3.66108629E+00,  3.78050479E-04,  2.45757569E-05,
                      -2.72736479E-08,  9.35484626E-12, -2.55776356E+04,
                       6.96921095E+00]),
                NASA([1000.00, 3000.00],
                     [ 1.20506556E+00,  1.52693588E-02, -7.35564052E-06,
                       1.74086533E-09, -1.63557134E-13, -2.52734175E+04,
                       1.77172879E+01])))

species(name=u'OCH2OOH',
        atoms='H:3 C:1 O:3',
        thermo=(NASA([298.00, 1000.00],
                     [ 1.45095087E+00,  4.17168434E-02, -6.11947821E-05,
                       4.67624220E-08, -1.40110494E-11, -1.26833133E+04,
                       1.82296764E+01]),
                NASA([1000.00, 3000.00],
                     [ 8.16020712E+00,  1.04965195E-02, -4.97653370E-06,
                       1.14903191E-09, -1.04839976E-13, -1.38997181E+04,
                      -1.32771130E+01])))

species(name=u'HOCH2OO',
        atoms='H:3 C:1 O:3',
        thermo=(NASA([298.00, 1000.00],
                     [ 2.96657563E+00,  2.56408495E-02, -2.19237324E-05,
                       9.11321759E-09, -1.32332737E-12, -2.17343666E+04,
                       1.28574586E+01]),
                NASA([1000.00, 3000.00],
                     [ 7.17818574E+00,  1.19199330E-02, -5.93183992E-06,
                       1.44682066E-09, -1.39516527E-13, -2.27363122E+04,
                      -8.25083014E+00])))

species(name=u'HOCH2OOH',
        atoms='H:4 C:1 O:3',
        thermo=(NASA([298.00, 1000.00],
                     [ 2.88219063E+00,  2.94738467E-02, -1.96730229E-05,
                       1.83229328E-09,  2.14962784E-12, -3.99383149E+04,
                       1.23112960E+01]),
                NASA([1000.00, 3000.00],
                     [ 8.65721338E+00,  1.30768169E-02, -6.50568247E-06,
                       1.59079960E-09, -1.54211888E-13, -4.13827948E+04,
                      -1.71113305E+01])))

species(name=u'HOCH2O',
        atoms='H:3 C:1 O:2',
        thermo=(NASA([298.00, 1000.00],
                     [ 3.72050310E-01,  2.75141397E-02, -2.51014485E-05,
                       1.11443106E-08, -1.75876570E-12, -2.15629517E+04,
                       2.31808083E+01]),
                NASA([1000.00, 3000.00],
                     [ 5.01330781E+00,  1.17929803E-02, -5.96627478E-06,
                       1.47376169E-09, -1.43488590E-13, -2.26274389E+04,
                       9.34068280E-02])))

species(name=u'C2H2',
        atoms='H:2 C:2',
        thermo=(NASA([298.00, 1000.00],
                     [ 6.11881334E-01,  2.35511205E-02, -3.51876788E-05,
                       2.71287984E-08, -8.05709816E-12,  2.65590923E+04,
                       1.48793590E+01]),
                NASA([1000.00, 3000.00],
                     [ 4.20453369E+00,  5.72745973E-03, -2.29545656E-06,
                       4.44130884E-10, -3.36445221E-14,  2.59806724E+04,
                      -1.67122889E+00])))

species(name=u'C2H3',
        atoms='H:3 C:2',
        thermo=(NASA([298.00, 1000.00],
                     [ 1.24592766E+00,  1.68943133E-02, -1.37100903E-05,
                       6.43932293E-09, -1.27588205E-12,  3.47409772E+04,
                       1.65205709E+01]),
                NASA([1000.00, 3000.00],
                     [ 2.78908546E+00,  1.09134748E-02, -5.21420437E-06,
                       1.21793184E-09, -1.12696119E-13,  3.44289873E+04,
                       9.04337729E+00])))

species(name=u'C2H4',
        atoms='H:4 C:2',
        thermo=(NASA([298.00, 1000.00],
                     [ 1.26077718E+00,  1.25535099E-02,  3.91765744E-06,
                      -1.11347591E-08,  4.58058379E-12,  5.33704654E+03,
                       1.53160033E+01]),
                NASA([1000.00, 3000.00],
                     [ 1.21215839E+00,  1.61560224E-02, -7.89891848E-06,
                       1.88672649E-09, -1.78219665E-13,  5.21965698E+03,
                       1.48068311E+01])))

species(name=u'C2H5',
        atoms='H:5 C:2',
        thermo=(NASA([298.00, 1000.00],
                     [ 2.01543665E+00,  1.36856127E-02,  3.09981682E-06,
                      -9.89324355E-09,  3.98938932E-12,  1.33584121E+04,
                       1.41655049E+01]),
                NASA([1000.00, 3000.00],
                     [ 1.39424662E+00,  1.85742180E-02, -9.00112446E-06,
                       2.12877239E-09, -1.99100582E-13,  1.34011406E+04,
                       1.66581828E+01])))

species(name=u'C2H6',
        atoms='H:6 C:2',
        thermo=(NASA([298.00, 1000.00],
                     [ 2.06504612E+00,  1.17762358E-02,  1.32773626E-05,
                      -1.95211261E-08,  6.98738503E-12, -1.13101096E+04,
                       1.18645311E+01]),
                NASA([1000.00, 3000.00],
                     [ 3.68691990E-02,  2.36238011E-02, -1.15795684E-05,
                       2.76430238E-09, -2.60500835E-13, -1.10418516E+04,
                       2.08390764E+01])))

species(name=u'ketene',
        atoms='H:2 C:2 O:1',
        thermo=(NASA([298.00, 1000.00],
                     [ 1.84575741E+00,  2.00191634E-02, -2.24248148E-05,
                       1.47947272E-08, -4.09905914E-12, -7.15187655E+03,
                       1.34255266E+01]),
                NASA([1000.00, 3000.00],
                     [ 4.24408656E+00,  9.50856221E-03, -4.60045649E-06,
                       1.08459628E-09, -1.01014433E-13, -7.60843408E+03,
                       2.02741024E+00])))

species(name=u'HCCO',
        atoms='H:1 C:2 O:1',
        thermo=(NASA([298.00, 1000.00],
                     [ 3.04318442E+00,  1.46102883E-02, -1.94446292E-05,
                       1.44842720E-08, -4.34187202E-12,  1.99516444E+04,
                       8.67756410E+00]),
                NASA([1000.00, 3000.00],
                     [ 5.00393576E+00,  5.37847238E-03, -2.57702189E-06,
                       6.01265265E-10, -5.54080163E-14,  1.95977241E+04,
                      -5.12761106E-01])))

species(name=u'ethynol',
        atoms='H:2 C:2 O:1',
        thermo=(NASA([298.00, 1000.00],
                     [ 1.92996781E+00,  2.40093186E-02, -3.27888943E-05,
                       2.38766618E-08, -6.84413662E-12,  9.70217812E+03,
                       1.28806688E+01]),
                NASA([1000.00, 3000.00],
                     [ 5.67465896E+00,  6.82098744E-03, -2.85054414E-06,
                       5.85856749E-10, -4.80416922E-14,  9.03568479E+03,
                      -4.70300719E+00])))

species(name=u'acetaldehyde',
        atoms='H:4 C:2 O:1',
        thermo=(NASA([298.00, 1000.00],
                     [ 2.93890043E+00,  9.57900047E-03,  1.29601852E-05,
                      -1.88434352E-08,  6.75416947E-12, -2.13254369E+04,
                       1.17108482E+01]),
                NASA([1000.00, 3000.00],
                     [ 1.67215938E+00,  1.94264694E-02, -9.92486315E-06,
                       2.45289244E-09, -2.37837800E-13, -2.12797614E+04,
                       1.67054665E+01])))

species(name=u'acetyl',
        atoms='H:3 C:2 O:1',
        thermo=(NASA([298.00, 1000.00],
                     [ 2.85218862E+00,  9.97887531E-03,  5.40771126E-06,
                      -1.08643520E-08,  4.11492482E-12, -2.46520894E+03,
                       1.27342988E+01]),
                NASA([1000.00, 3000.00],
                     [ 2.41270342E+00,  1.50079079E-02, -7.62703534E-06,
                       1.87719884E-09, -1.81426735E-13, -2.52144188E+03,
                       1.40854000E+01])))

species(name=u'vinoxy',
        atoms='H:3 C:2 O:1',
        thermo=(NASA([298.00, 1000.00],
                     [ 9.86311004E-01,  2.24920216E-02, -1.64812936E-05,
                       5.86617239E-09, -6.81551147E-13,  1.07163704E+03,
                       1.95196726E+01]),
                NASA([1000.00, 3000.00],
                     [ 3.63026330E+00,  1.41239404E-02, -7.16478146E-06,
                       1.76263004E-09, -1.70391996E-13,  4.29875072E+02,
                       6.20577997E+00])))

species(name=u'acetylperoxy',
        atoms='H:3 C:2 O:3',
        thermo=(NASA([298.00, 1000.00],
                     [ 3.66998082E+00,  2.50159315E-02, -1.27410138E-05,
                      -7.96811171E-10,  1.92432531E-12, -2.09653381E+04,
                       1.05978123E+01]),
                NASA([1000.00, 3000.00],
                     [ 7.15801302E+00,  1.68385555E-02, -9.00373237E-06,
                       2.31051337E-09, -2.30936859E-13, -2.19562215E+04,
                      -7.68488453E+00])))

species(name=u'acetyloxy',
        atoms='H:3 C:2 O:2',
        thermo=(NASA([298.00, 1000.00],
                     [ 1.17076084E+00,  2.47046342E-02, -1.42326686E-05,
                       1.70646336E-09,  9.26725090E-13, -2.39364094E+04,
                       2.07079246E+01]),
                NASA([1000.00, 3000.00],
                     [ 4.14154939E+00,  1.70023887E-02, -8.88617341E-06,
                       2.23864498E-09, -2.20494765E-13, -2.47418417E+04,
                       5.32485323E+00])))

species(name=u'ethoxy',
        atoms='H:5 C:2 O:1',
        thermo=(NASA([298.00, 1000.00],
                     [ 2.73919981E+00,  1.81013080E-02, -7.21353332E-08,
                      -8.91603780E-09,  3.86311285E-12, -3.14454778E+03,
                       1.27492845E+01]),
                NASA([1000.00, 3000.00],
                     [ 2.85434976E+00,  2.11633718E-02, -1.06528048E-05,
                       2.60003906E-09, -2.49508340E-13, -3.32033480E+03,
                       1.13715907E+01])))

species(name=u'CH3CH2OO',
        atoms='H:5 C:2 O:2',
        thermo=(NASA([298.00, 1000.00],
                     [ 1.56891363E+00,  2.79047858E-02, -1.16126651E-05,
                      -2.60387172E-09,  2.56377034E-12, -4.13577872E+03,
                       2.06359158E+01]),
                NASA([1000.00, 3000.00],
                     [ 3.99240112E+00,  2.28320645E-02, -1.15745589E-05,
                       2.84607517E-09, -2.75048946E-13, -4.83033050E+03,
                       7.84178130E+00])))

species(name=u'CH3CH2OOH',
        atoms='H:6 C:2 O:2',
        thermo=(NASA([298.00, 1000.00],
                     [ 1.98006650E+00,  3.17098108E-02, -1.61557847E-05,
                       5.39673461E-10,  1.67707875E-12, -2.12702211E+04,
                       1.78400102E+01]),
                NASA([1000.00, 3000.00],
                     [ 4.90574164E+00,  2.43699936E-02, -1.22134670E-05,
                       2.97365019E-09, -2.85073504E-13, -2.20561572E+04,
                       2.67803319E+00])))

species(name=u'CH2CH2OOH',
        atoms='H:5 C:2 O:2',
        thermo=(NASA([298.00, 1000.00],
                     [ 2.78275428E+00,  2.91780121E-02, -1.83781941E-05,
                       3.72267505E-09,  6.46965042E-13,  4.15626880E+03,
                       1.60489538E+01]),
                NASA([1000.00, 3000.00],
                     [ 6.23655657E+00,  1.91025783E-02, -9.45182443E-06,
                       2.28262610E-09, -2.17724199E-13,  3.29767692E+03,
                      -1.50062965E+00])))

species(name=u'ethanol',
        atoms='H:6 C:2 O:1',
        thermo=(NASA([298.00, 1000.00],
                     [ 1.67343252E+00,  2.16067828E-02,  3.95866994E-08,
                      -1.16485826E-08,  5.25035221E-12, -2.98623490E+04,
                       1.77570603E+01]),
                NASA([1000.00, 3000.00],
                     [ 2.39391356E+00,  2.35476167E-02, -1.15124002E-05,
                       2.75287099E-09, -2.60429407E-13, -3.02007918E+04,
                       1.31925240E+01])))

species(name=u'CH2CH2OH',
        atoms='H:5 C:2 O:1',
        thermo=(NASA([298.00, 1000.00],
                     [ 3.83290357E+00,  1.63776840E-02, -1.11761545E-06,
                      -7.22352305E-09,  3.39434630E-12, -4.84214038E+03,
                       8.36152361E+00]),
                NASA([1000.00, 3000.00],
                     [ 4.22757133E+00,  1.75986601E-02, -8.31498469E-06,
                       1.93077682E-09, -1.78228173E-13, -5.02223318E+03,
                       5.85467414E+00])))

species(name=u'CH3CHOH',
        atoms='H:5 C:2 O:1',
        thermo=(NASA([298.00, 1000.00],
                     [ 2.74766597E+00,  1.84167341E-02, -1.08439547E-06,
                      -9.10240458E-09,  4.31028015E-12, -8.18428796E+03,
                       1.32796002E+01]),
                NASA([1000.00, 3000.00],
                     [ 3.75147050E+00,  1.86443433E-02, -9.06354158E-06,
                       2.15945978E-09, -2.03851879E-13, -8.55482143E+03,
                       7.48210625E+00])))

species(name=u'oxirane',
        atoms='H:4 C:2 O:1',
        thermo=(NASA([298.00, 1000.00],
                     [-6.84201089E-01,  2.36878756E-02, -5.41513728E-06,
                      -8.43096475E-09,  4.63073341E-12, -7.01044680E+03,
                       2.63344882E+01]),
                NASA([1000.00, 3000.00],
                     [ 1.78916723E+00,  1.99822661E-02, -1.03044753E-05,
                       2.57342854E-09, -2.52080658E-13, -7.77576654E+03,
                       1.29519160E+01])))

species(name=u'oxiranyl',
        atoms='H:3 C:2 O:1',
        thermo=(NASA([298.00, 1000.00],
                     [-4.63883975E-01,  2.48719728E-02, -1.57280639E-05,